New "Line.671692" bus1=671.1.2.3.0 bus2=692.1.2.3.0 length=0.001 phases=3 r1=0.0001 x1=0 r0=0.0001 x0=0 C1=0 C0=0 Switch=Yes 
